/*--------------------------------*- C++ -*----------------------------------*\
  =========                 |
  \\      /  F ield         | OpenFOAM: The Open Source CFD Toolbox
   \\    /   O peration     | Website:  https://openfoam.org
    \\  /    A nd           | Version:  6
     \\/     M anipulation  |
\*---------------------------------------------------------------------------*/
FoamFile
{
    version     2.0;
    format      ascii;
    class       dictionary;
    object      setFieldsDict;
}
// * * * * * * * * * * * * * * * * * * * * * * * * * * * * * * * * * * * * * //

defaultFieldValues
(
    volScalarFieldValue alpha.particles 0
);

regions
(
    // Set cell values
    // (does zerogradient on boundaries)
    boxToCell
    {
        box (-1 0.0071 0) (1 1 1);

        fieldValues
        (
            volScalarFieldValue alpha.particles 0.595
        );
    }

);

// ************************************************************************* //
